  Processing Data Dictionary (Energy+.idd) File -- Complete
  Maximum number of Alpha Args=        4500
  Maximum number of Numeric Args=       21040
  Number of Object Definitions=         727
  Number of Section Definitions=           2
  Total Number of Alpha Fields=       18098
  Total Number of Numeric Fields=       39469
  Total Number of Fields=       57567
  Processing Input Data File (in.idf) -- Start
      1 !-Generator IDFEditor 1.44
      2 !-Option SortedOrder
      3 
      4 !-NOTE: All comments with '!-' are ignored by the IDFEditor and are generated automatically.
      5 !-      Use '!' comments if they need to be retained when using the IDFEditor.
      6 
      7 
      8 !-   ===========  ALL OBJECTS IN CLASS: VERSION ===========
      9 
     10 ! File generated by DesignBuilder - 3.0.0.105 2016-11-22 - ¿ÀÀü 11:10:02
     11 ! Source file: C:\Users\LMH\Desktop\SMOT\1. Modeling\84m2\1floor\84type_2core_backup.dsb
     12 Version,
     13     8.1;                     !- Version Identifier
     14 
     15 
     16 !-   ===========  ALL OBJECTS IN CLASS: SIMULATIONCONTROL ===========
     17 
     18 SimulationControl,
     19     No,                      !- Do Zone Sizing Calculation
     20     No,                      !- Do System Sizing Calculation
     21     No,                      !- Do Plant Sizing Calculation
     22     No,                      !- Run Simulation for Sizing Periods
     23     Yes;                     !- Run Simulation for Weather File Run Periods
     24 
     25 
     26 !-   ===========  ALL OBJECTS IN CLASS: BUILDING ===========
     27 
     28 Building,
     29     Building,                !- Name
     30     0,                       !- North Axis {deg}
     31     Suburbs,                 !- Terrain
     32     0.04,                    !- Loads Convergence Tolerance Value
     33     0.4,                     !- Temperature Convergence Tolerance Value {deltaC}
     34     FullInteriorAndExterior, !- Solar Distribution
     35     25,                      !- Maximum Number of Warmup Days
     36     ;                        !- Minimum Number of Warmup Days
     37 
     38 
     39 !-   ===========  ALL OBJECTS IN CLASS: SHADOWCALCULATION ===========
     40 
     41 ShadowCalculation,
     42     AverageOverDaysInFrequency,  !- Calculation Method
     43     20,                      !- Calculation Frequency
     44     15000,                   !- Maximum Figures in Shadow Overlap Calculations
     45     SutherlandHodgman,       !- Polygon Clipping Algorithm
     46     SimpleSkyDiffuseModeling;!- Sky Diffuse Modeling Algorithm
     47 
     48 
     49 !-   ===========  ALL OBJECTS IN CLASS: SURFACECONVECTIONALGORITHM:INSIDE ===========
     50 
     51 SurfaceConvectionAlgorithm:Inside,
     52     TARP;                    !- Algorithm
     53 
     54 
     55 !-   ===========  ALL OBJECTS IN CLASS: SURFACECONVECTIONALGORITHM:OUTSIDE ===========
     56 
     57 SurfaceConvectionAlgorithm:Outside,
     58     DOE-2;                   !- Algorithm
     59 
     60 
     61 !-   ===========  ALL OBJECTS IN CLASS: HEATBALANCEALGORITHM ===========
     62 
     63 HeatBalanceAlgorithm,
     64     ConductionTransferFunction,  !- Algorithm
     65     2000;                    !- Surface Temperature Upper Limit {C}
     66 
     67 
     68 !-   ===========  ALL OBJECTS IN CLASS: ZONECAPACITANCEMULTIPLIER:RESEARCHSPECIAL ===========
     69 
     70 ZoneCapacitanceMultiplier:ResearchSpecial,
     71     1.0,                     !- Temperature Capacity Multiplier
     72     ,                        !- Humidity Capacity Multiplier
     73     ,                        !- Carbon Dioxide Capacity Multiplier
     74     1.0;                     !- Generic Contaminant Capacity Multiplier
     75 
     76 
     77 !-   ===========  ALL OBJECTS IN CLASS: TIMESTEP ===========
     78 
     79 Timestep,
     80     1;                       !- Number of Timesteps per Hour
     81 
     82 
     83 !-   ===========  ALL OBJECTS IN CLASS: CONVERGENCELIMITS ===========
     84 
     85 ConvergenceLimits,
     86     1,                       !- Minimum System Timestep {minutes}
     87     20;                      !- Maximum HVAC Iterations
     88 
     89 
     90 !-   ===========  ALL OBJECTS IN CLASS: SITE:LOCATION ===========
     91 
     92 ! Hourly weather file: C:\ProgramData\DesignBuilder\Weather Data\KOR_INCH'ON_IWEC.epw
     93 Site:Location,
     94     84type_2core,            !- Name
     95     37.57,                   !- Latitude {deg}
     96     126.97,                  !- Longitude {deg}
     97     9,                       !- Time Zone {hr}
     98     87;                      !- Elevation {m}
     99 
    100 
    101 !-   ===========  ALL OBJECTS IN CLASS: RUNPERIOD ===========
    102 
    103 RunPeriod,
    104     84type_2core,            !- Name
    105     1,                       !- Begin Month
    106     1,                       !- Begin Day of Month
    107     12,                      !- End Month
    108     31,                      !- End Day of Month
    109     UseWeatherFile,          !- Day of Week for Start Day
    110     No,                      !- Use Weather File Holidays and Special Days
    111     Yes,                     !- Use Weather File Daylight Saving Period
    112     Yes,                     !- Apply Weekend Holiday Rule
    113     Yes,                     !- Use Weather File Rain Indicators
    114     Yes,                     !- Use Weather File Snow Indicators
    115     1;                       !- Number of Times Runperiod to be Repeated
    116 
    117 
    118 !-   ===========  ALL OBJECTS IN CLASS: SITE:GROUNDTEMPERATURE:BUILDINGSURFACE ===========
    119 
    120 Site:GroundTemperature:BuildingSurface,
    121     14,                      !- January Ground Temperature {C}
    122     14,                      !- February Ground Temperature {C}
    123     14,                      !- March Ground Temperature {C}
    124     14,                      !- April Ground Temperature {C}
    125     14,                      !- May Ground Temperature {C}
    126     14,                      !- June Ground Temperature {C}
    127     14,                      !- July Ground Temperature {C}
    128     14,                      !- August Ground Temperature {C}
    129     14,                      !- September Ground Temperature {C}
    130     14,                      !- October Ground Temperature {C}
    131     14,                      !- November Ground Temperature {C}
    132     14;                      !- December Ground Temperature {C}
    133 
    134 
    135 !-   ===========  ALL OBJECTS IN CLASS: SITE:GROUNDREFLECTANCE ===========
    136 
    137 Site:GroundReflectance,
    138     0.2,                     !- January Ground Reflectance {dimensionless}
    139     0.2,                     !- February Ground Reflectance {dimensionless}
    140     0.2,                     !- March Ground Reflectance {dimensionless}
    141     0.2,                     !- April Ground Reflectance {dimensionless}
    142     0.2,                     !- May Ground Reflectance {dimensionless}
    143     0.2,                     !- June Ground Reflectance {dimensionless}
    144     0.2,                     !- July Ground Reflectance {dimensionless}
    145     0.2,                     !- August Ground Reflectance {dimensionless}
    146     0.2,                     !- September Ground Reflectance {dimensionless}
    147     0.2,                     !- October Ground Reflectance {dimensionless}
    148     0.2,                     !- November Ground Reflectance {dimensionless}
    149     0.2;                     !- December Ground Reflectance {dimensionless}
    150 
    151 
    152 !-   ===========  ALL OBJECTS IN CLASS: SITE:GROUNDREFLECTANCE:SNOWMODIFIER ===========
    153 
    154 Site:GroundReflectance:SnowModifier,
    155     1.0,                     !- Ground Reflected Solar Modifier
    156     1.0;                     !- Daylighting Ground Reflected Solar Modifier
    157 
    158 
    159 !-   ===========  ALL OBJECTS IN CLASS: SCHEDULETYPELIMITS ===========
    160 
    161 ScheduleTypeLimits,
    162     Any Number;              !- Name
    163 
    164 ScheduleTypeLimits,
    165     Fraction,                !- Name
    166     0.0,                     !- Lower Limit Value
    167     1.0,                     !- Upper Limit Value
    168     CONTINUOUS;              !- Numeric Type
    169 
    170 ScheduleTypeLimits,
    171     Temperature,             !- Name
    172     -60,                     !- Lower Limit Value
    173     200,                     !- Upper Limit Value
    174     CONTINUOUS;              !- Numeric Type
    175 
    176 ScheduleTypeLimits,
    177     Control Type,            !- Name
    178     0,                       !- Lower Limit Value
    179     4,                       !- Upper Limit Value
    180     DISCRETE;                !- Numeric Type
    181 
    182 ScheduleTypeLimits,
    183     On/Off,                  !- Name
    184     0,                       !- Lower Limit Value
    185     1,                       !- Upper Limit Value
    186     DISCRETE;                !- Numeric Type
    187 
    188 
    189 !-   ===========  ALL OBJECTS IN CLASS: SCHEDULE:DAY:HOURLY ===========
    190 
    191 !Schedule:Compact, AirVelocitySchedule,
    192 !      Any Number,                                 ! Type
    193 !      Through: 12/31,                             ! Type
    194 !      For: AllDays,                               ! All days in year
    195 !      Until: 24:00,                               ! All hours in day
    196 !       0.137;
    197 ! off heating day
    198 Schedule:Day:Hourly,
    199     0,                       !- Name
    200     Any Number,              !- Schedule Type Limits Name
    201     0,                       !- Hour 1
    202     0,                       !- Hour 2
    203     0,                       !- Hour 3
    204     0,                       !- Hour 4
    205     0,                       !- Hour 5
    206     0,                       !- Hour 6
    207     0,                       !- Hour 7
    208     0,                       !- Hour 8
    209     0,                       !- Hour 9
    210     0,                       !- Hour 10
    211     0,                       !- Hour 11
    212     0,                       !- Hour 12
    213     0,                       !- Hour 13
    214     0,                       !- Hour 14
    215     0,                       !- Hour 15
    216     0,                       !- Hour 16
    217     0,                       !- Hour 17
    218     0,                       !- Hour 18
    219     0,                       !- Hour 19
    220     0,                       !- Hour 20
    221     0,                       !- Hour 21
    222     0,                       !- Hour 22
    223     0,                       !- Hour 23
    224     0;                       !- Hour 24
    225 
    226 ! off cooling day
    227 Schedule:Day:Hourly,
    228     50,                      !- Name
    229     Any Number,              !- Schedule Type Limits Name
    230     50,                      !- Hour 1
    231     50,                      !- Hour 2
    232     50,                      !- Hour 3
    233     50,                      !- Hour 4
    234     50,                      !- Hour 5
    235     50,                      !- Hour 6
    236     50,                      !- Hour 7
    237     50,                      !- Hour 8
    238     50,                      !- Hour 9
    239     50,                      !- Hour 10
    240     50,                      !- Hour 11
    241     50,                      !- Hour 12
    242     50,                      !- Hour 13
    243     50,                      !- Hour 14
    244     50,                      !- Hour 15
    245     50,                      !- Hour 16
    246     50,                      !- Hour 17
    247     50,                      !- Hour 18
    248     50,                      !- Hour 19
    249     50,                      !- Hour 20
    250     50,                      !- Hour 21
    251     50,                      !- Hour 22
    252     50,                      !- Hour 23
    253     50;                      !- Hour 24
    254 
    255 ! used in seasonal schedules
    256 Schedule:Day:Hourly,
    257     Off,                     !- Name
    258     Fraction,                !- Schedule Type Limits Name
    259     0,                       !- Hour 1
    260     0,                       !- Hour 2
    261     0,                       !- Hour 3
    262     0,                       !- Hour 4
    263     0,                       !- Hour 5
    264     0,                       !- Hour 6
    265     0,                       !- Hour 7
    266     0,                       !- Hour 8
    267     0,                       !- Hour 9
    268     0,                       !- Hour 10
    269     0,                       !- Hour 11
    270     0,                       !- Hour 12
    271     0,                       !- Hour 13
    272     0,                       !- Hour 14
    273     0,                       !- Hour 15
    274     0,                       !- Hour 16
    275     0,                       !- Hour 17
    276     0,                       !- Hour 18
    277     0,                       !- Hour 19
    278     0,                       !- Hour 20
    279     0,                       !- Hour 21
    280     0,                       !- Hour 22
    281     0,                       !- Hour 23
    282     0;                       !- Hour 24
    283 
    284 ! -------------------- Control type schedules (for heating & cooling) ----------------------
    285 Schedule:Day:Hourly,
    286     Summer Control Type Day Sch,  !- Name
    287     Control Type,            !- Schedule Type Limits Name
    288     4,                       !- Hour 1
    289     4,                       !- Hour 2
    290     4,                       !- Hour 3
    291     4,                       !- Hour 4
    292     4,                       !- Hour 5
    293     4,                       !- Hour 6
    294     4,                       !- Hour 7
    295     4,                       !- Hour 8
    296     4,                       !- Hour 9
    297     4,                       !- Hour 10
    298     4,                       !- Hour 11
    299     4,                       !- Hour 12
    300     4,                       !- Hour 13
    301     4,                       !- Hour 14
    302     4,                       !- Hour 15
    303     4,                       !- Hour 16
    304     4,                       !- Hour 17
    305     4,                       !- Hour 18
    306     4,                       !- Hour 19
    307     4,                       !- Hour 20
    308     4,                       !- Hour 21
    309     4,                       !- Hour 22
    310     4,                       !- Hour 23
    311     4;                       !- Hour 24
    312 
    313 Schedule:Day:Hourly,
    314     Winter Control Type Day Sch,  !- Name
    315     Control Type,            !- Schedule Type Limits Name
    316     4,                       !- Hour 1
    317     4,                       !- Hour 2
    318     4,                       !- Hour 3
    319     4,                       !- Hour 4
    320     4,                       !- Hour 5
    321     4,                       !- Hour 6
    322     4,                       !- Hour 7
    323     4,                       !- Hour 8
    324     4,                       !- Hour 9
    325     4,                       !- Hour 10
    326     4,                       !- Hour 11
    327     4,                       !- Hour 12
    328     4,                       !- Hour 13
    329     4,                       !- Hour 14
    330     4,                       !- Hour 15
    331     4,                       !- Hour 16
    332     4,                       !- Hour 17
    333     4,                       !- Hour 18
    334     4,                       !- Hour 19
    335     4,                       !- Hour 20
    336     4,                       !- Hour 21
    337     4,                       !- Hour 22
    338     4,                       !- Hour 23
    339     4;                       !- Hour 24
    340 
    341 Schedule:Day:Hourly,
    342     Summer Control Type Day Sch - cool,  !- Name
    343     Control Type,            !- Schedule Type Limits Name
    344     2,                       !- Hour 1
    345     2,                       !- Hour 2
    346     2,                       !- Hour 3
    347     2,                       !- Hour 4
    348     2,                       !- Hour 5
    349     2,                       !- Hour 6
    350     2,                       !- Hour 7
    351     2,                       !- Hour 8
    352     2,                       !- Hour 9
    353     2,                       !- Hour 10
    354     2,                       !- Hour 11
    355     2,                       !- Hour 12
    356     2,                       !- Hour 13
    357     2,                       !- Hour 14
    358     2,                       !- Hour 15
    359     2,                       !- Hour 16
    360     2,                       !- Hour 17
    361     2,                       !- Hour 18
    362     2,                       !- Hour 19
    363     2,                       !- Hour 20
    364     2,                       !- Hour 21
    365     2,                       !- Hour 22
    366     2,                       !- Hour 23
    367     2;                       !- Hour 24
    368 
    369 Schedule:Day:Hourly,
    370     Winter Control Type Day Sch - heat,  !- Name
    371     Control Type,            !- Schedule Type Limits Name
    372     1,                       !- Hour 1
    373     1,                       !- Hour 2
    374     1,                       !- Hour 3
    375     1,                       !- Hour 4
    376     1,                       !- Hour 5
    377     1,                       !- Hour 6
    378     1,                       !- Hour 7
    379     1,                       !- Hour 8
    380     1,                       !- Hour 9
    381     1,                       !- Hour 10
    382     1,                       !- Hour 11
    383     1,                       !- Hour 12
    384     1,                       !- Hour 13
    385     1,                       !- Hour 14
    386     1,                       !- Hour 15
    387     1,                       !- Hour 16
    388     1,                       !- Hour 17
    389     1,                       !- Hour 18
    390     1,                       !- Hour 19
    391     1,                       !- Hour 20
    392     1,                       !- Hour 21
    393     1,                       !- Hour 22
    394     1,                       !- Hour 23
    395     1;                       !- Hour 24
    396 
    397 
    398 !-   ===========  ALL OBJECTS IN CLASS: SCHEDULE:WEEK:DAILY ===========
    399 
    400 Schedule:Week:Daily,
    401     Off,                     !- Name
    402     Off,                     !- Sunday Schedule:Day Name
    403     Off,                     !- Monday Schedule:Day Name
    404     Off,                     !- Tuesday Schedule:Day Name
    405     Off,                     !- Wednesday Schedule:Day Name
    406     Off,                     !- Thursday Schedule:Day Name
    407     Off,                     !- Friday Schedule:Day Name
    408     Off,                     !- Saturday Schedule:Day Name
    409     Off,                     !- Holiday Schedule:Day Name
    410     Off,                     !- SummerDesignDay Schedule:Day Name
    411     Off,                     !- WinterDesignDay Schedule:Day Name
    412     Off,                     !- CustomDay1 Schedule:Day Name
    413     Off;                     !- CustomDay2 Schedule:Day Name
    414 
    415 Schedule:Week:Daily,
    416     Summer Control Type Week Sch,  !- Name
    417     Summer Control Type Day Sch,  !- Sunday Schedule:Day Name
    418     Summer Control Type Day Sch,  !- Monday Schedule:Day Name
    419     Summer Control Type Day Sch,  !- Tuesday Schedule:Day Name
    420     Summer Control Type Day Sch,  !- Wednesday Schedule:Day Name
    421     Summer Control Type Day Sch,  !- Thursday Schedule:Day Name
    422     Summer Control Type Day Sch,  !- Friday Schedule:Day Name
    423     Summer Control Type Day Sch,  !- Saturday Schedule:Day Name
    424     Summer Control Type Day Sch,  !- Holiday Schedule:Day Name
    425     Summer Control Type Day Sch,  !- SummerDesignDay Schedule:Day Name
    426     Summer Control Type Day Sch,  !- WinterDesignDay Schedule:Day Name
    427     Summer Control Type Day Sch,  !- CustomDay1 Schedule:Day Name
    428     Summer Control Type Day Sch;  !- CustomDay2 Schedule:Day Name
    429 
    430 Schedule:Week:Daily,
    431     Winter Control Type Week Sch,  !- Name
    432     Winter Control Type Day Sch,  !- Sunday Schedule:Day Name
    433     Winter Control Type Day Sch,  !- Monday Schedule:Day Name
    434     Winter Control Type Day Sch,  !- Tuesday Schedule:Day Name
    435     Winter Control Type Day Sch,  !- Wednesday Schedule:Day Name
    436     Winter Control Type Day Sch,  !- Thursday Schedule:Day Name
    437     Winter Control Type Day Sch,  !- Friday Schedule:Day Name
    438     Winter Control Type Day Sch,  !- Saturday Schedule:Day Name
    439     Winter Control Type Day Sch,  !- Holiday Schedule:Day Name
    440     Winter Control Type Day Sch,  !- SummerDesignDay Schedule:Day Name
    441     Winter Control Type Day Sch,  !- WinterDesignDay Schedule:Day Name
    442     Winter Control Type Day Sch,  !- CustomDay1 Schedule:Day Name
    443     Winter Control Type Day Sch;  !- CustomDay2 Schedule:Day Name
    444 
    445 Schedule:Week:Daily,
    446     Summer Control Type Week Sch - cool,  !- Name
    447     Summer Control Type Day Sch - cool,  !- Sunday Schedule:Day Name
    448     Summer Control Type Day Sch - cool,  !- Monday Schedule:Day Name
    449     Summer Control Type Day Sch - cool,  !- Tuesday Schedule:Day Name
    450     Summer Control Type Day Sch - cool,  !- Wednesday Schedule:Day Name
    451     Summer Control Type Day Sch - cool,  !- Thursday Schedule:Day Name
    452     Summer Control Type Day Sch - cool,  !- Friday Schedule:Day Name
    453     Summer Control Type Day Sch - cool,  !- Saturday Schedule:Day Name
    454     Summer Control Type Day Sch - cool,  !- Holiday Schedule:Day Name
    455     Summer Control Type Day Sch - cool,  !- SummerDesignDay Schedule:Day Name
    456     Summer Control Type Day Sch - cool,  !- WinterDesignDay Schedule:Day Name
    457     Summer Control Type Day Sch - cool,  !- CustomDay1 Schedule:Day Name
    458     Summer Control Type Day Sch - cool;  !- CustomDay2 Schedule:Day Name
    459 
    460 Schedule:Week:Daily,
    461     Winter Control Type Week Sch - heat,  !- Name
    462     Winter Control Type Day Sch - heat,  !- Sunday Schedule:Day Name
    463     Winter Control Type Day Sch - heat,  !- Monday Schedule:Day Name
    464     Winter Control Type Day Sch - heat,  !- Tuesday Schedule:Day Name
    465     Winter Control Type Day Sch - heat,  !- Wednesday Schedule:Day Name
    466     Winter Control Type Day Sch - heat,  !- Thursday Schedule:Day Name
    467     Winter Control Type Day Sch - heat,  !- Friday Schedule:Day Name
    468     Winter Control Type Day Sch - heat,  !- Saturday Schedule:Day Name
    469     Winter Control Type Day Sch - heat,  !- Holiday Schedule:Day Name
    470     Winter Control Type Day Sch - heat,  !- SummerDesignDay Schedule:Day Name
    471     Winter Control Type Day Sch - heat,  !- WinterDesignDay Schedule:Day Name
    472     Winter Control Type Day Sch - heat,  !- CustomDay1 Schedule:Day Name
    473     Winter Control Type Day Sch - heat;  !- CustomDay2 Schedule:Day Name
    474 
    475 
    476 !-   ===========  ALL OBJECTS IN CLASS: SCHEDULE:YEAR ===========
    477 
    478 Schedule:Year,
    479     Zone Control Type Sched, !- Name
    480     Control Type,            !- Schedule Type Limits Name
    481     Winter Control Type Week Sch,  !- Schedule:Week Name 1
    482     1,                       !- Start Month 1
    483     1,                       !- Start Day 1
    484     3,                       !- End Month 1
    485     31,                      !- End Day 1
    486     Summer Control Type Week Sch,  !- Schedule:Week Name 2
    487     4,                       !- Start Month 2
    488     1,                       !- Start Day 2
    489     9,                       !- End Month 2
    490     30,                      !- End Day 2
    491     Winter Control Type Week Sch,  !- Schedule:Week Name 3
    492     10,                      !- Start Month 3
    493     1,                       !- Start Day 3
    494     12,                      !- End Month 3
    495     31;                      !- End Day 3
    496 
    497 
    498 !-   ===========  ALL OBJECTS IN CLASS: SCHEDULE:COMPACT ===========
    499 
    500 Schedule:Compact,
    501     On,                      !- Name
    502     Any Number,              !- Schedule Type Limits Name
    503     Through: 12/31,          !- Field 1
    504     For: AllDays,            !- Field 2
    505     Until: 24:00,            !- Field 3
    506     1;                       !- Field 4
    507 
    508 Schedule:Compact,
    509     Off,                     !- Name
    510     Any Number,              !- Schedule Type Limits Name
    511     Through: 12/31,          !- Field 1
    512     For: AllDays,            !- Field 2
    513     Until: 24:00,            !- Field 3
    514     0;                       !- Field 4
    515 
    516 Schedule:Compact,
    517     Work efficiency,         !- Name
    518     Any Number,              !- Schedule Type Limits Name
    519     Through: 12/31,          !- Field 1
    520     For: AllDays,            !- Field 2
    521     Until: 24:00,            !- Field 3
    522     0;                       !- Field 4
    523 
    524 Schedule:Compact,
    525     OpaqueShade,             !- Name
    526     Any Number,              !- Schedule Type Limits Name
    527     Through: 12/31,          !- Field 1
    528     For: AllDays,            !- Field 2
    529     Until: 24:00,            !- Field 3
    530     0;                       !- Field 4
    531 
    532 Schedule:Compact,
    533     AirVelocitySchedule,     !- Name
    534     Any Number,              !- Schedule Type Limits Name
    535     Through: 12/31,          !- Field 1
    536     For: AllDays,            !- Field 2
    537     Until: 24:00,            !- Field 3
    538     .137;                    !- Field 4
    539 
    540 ! Schedule: Off
    541 Schedule:Compact,
    542     7,                       !- Name
    543     Any Number,              !- Schedule Type Limits Name
    544     Through: 12/31,          !- Field 1
    545     For: AllDays,            !- Field 2
    546     Until: 24:00,            !- Field 3
    547     0;                       !- Field 4
    548 
    549 ! Schedule: Dwell_DomCirculation_Occ
    550 Schedule:Compact,
    551     3354,                    !- Name
    552     Fraction,                !- Schedule Type Limits Name
    553     Through: 31 Dec,         !- Field 1
    554     For: Weekdays SummerDesignDay,  !- Field 2
    555     Until: 07:00,            !- Field 3
    556     0,                       !- Field 4
    557     Until: 10:00,            !- Field 5
    558     1,                       !- Field 6
    559     Until: 19:00,            !- Field 7
    560     0,                       !- Field 8
    561     Until: 23:00,            !- Field 9
    562     0.2,                     !- Field 10
    563     Until: 24:00,            !- Field 11
    564     0,                       !- Field 12
    565     For: Weekends,           !- Field 13
    566     Until: 07:00,            !- Field 14
    567     0,                       !- Field 15
    568     Until: 23:00,            !- Field 16
    569     1,                       !- Field 17
    570     Until: 24:00,            !- Field 18
    571     0.3,                     !- Field 19
    572     For: Holidays,           !- Field 20
    573     Until: 07:00,            !- Field 21
    574     0,                       !- Field 22
    575     Until: 23:00,            !- Field 23
    576     1,                       !- Field 24
    577     Until: 24:00,            !- Field 25
    578     0.3,                     !- Field 26
    579     For: WinterDesignDay AllOtherDays,  !- Field 27
    580     Until: 24:00,            !- Field 28
    581     0;                       !- Field 29
    582 
    583 ! Schedule: Dwell_DomCirculation_Light
    584 Schedule:Compact,
    585     3355,                    !- Name
    586     Fraction,                !- Schedule Type Limits Name
    587     Through: 31 Dec,         !- Field 1
    588     For: Weekdays SummerDesignDay,  !- Field 2
    589     Until: 07:00,            !- Field 3
    590     0,                       !- Field 4
    591     Until: 10:00,            !- Field 5
    592     1,                       !- Field 6
    593     Until: 19:00,            !- Field 7
    594     0,                       !- Field 8
    595     Until: 23:00,            !- Field 9
    596     1,                       !- Field 10
    597     Until: 24:00,            !- Field 11
    598     0,                       !- Field 12
    599     For: Weekends,           !- Field 13
    600     Until: 07:00,            !- Field 14
    601     0,                       !- Field 15
    602     Until: 24:00,            !- Field 16
    603     1,                       !- Field 17
    604     For: Holidays,           !- Field 18
    605     Until: 07:00,            !- Field 19
    606     0,                       !- Field 20
    607     Until: 24:00,            !- Field 21
    608     1,                       !- Field 22
    609     For: WinterDesignDay AllOtherDays,  !- Field 23
    610     Until: 24:00,            !- Field 24
    611     0;                       !- Field 25
    612 
    613 ! Schedule: 84type_Insulation_Occ
    614 Schedule:Compact,
    615     10000,                   !- Name
    616     Fraction,                !- Schedule Type Limits Name
    617     Through: 31 Dec,         !- Field 1
    618     For: Weekdays SummerDesignDay,  !- Field 2
    619     Until: 07:00,            !- Field 3
    620     0,                       !- Field 4
    621     Until: 10:00,            !- Field 5
    622     1,                       !- Field 6
    623     Until: 19:00,            !- Field 7
    624     0,                       !- Field 8
    625     Until: 23:00,            !- Field 9
    626     0.2,                     !- Field 10
    627     Until: 24:00,            !- Field 11
    628     0,                       !- Field 12
    629     For: Weekends,           !- Field 13
    630     Until: 07:00,            !- Field 14
    631     0,                       !- Field 15
    632     Until: 23:00,            !- Field 16
    633     1,                       !- Field 17
    634     Until: 24:00,            !- Field 18
    635     0.3,                     !- Field 19
    636     For: Holidays,           !- Field 20
    637     Until: 07:00,            !- Field 21
    638     0,                       !- Field 22
    639     Until: 23:00,            !- Field 23
    640     1,                       !- Field 24
    641     Until: 24:00,            !- Field 25
    642     0.3,                     !- Field 26
    643     For: WinterDesignDay AllOtherDays,  !- Field 27
    644     Until: 24:00,            !- Field 28
    645     0;                       !- Field 29
    646 
    647 ! Schedule: 84type_Insulation_Equip
    648 Schedule:Compact,
    649     10001,                   !- Name
    650     Fraction,                !- Schedule Type Limits Name
    651     Through: 31 Dec,         !- Field 1
    652     For: Weekdays SummerDesignDay,  !- Field 2
    653     Until: 07:00,            !- Field 3
    654     0.06368461,              !- Field 4
    655     Until: 08:00,            !- Field 5
    656     0.531842305,             !- Field 6
    657     Until: 09:00,            !- Field 7
    658     1,                       !- Field 8
    659     Until: 10:00,            !- Field 9
    660     0.531842305,             !- Field 10
    661     Until: 17:00,            !- Field 11
    662     0.06368461,              !- Field 12
    663     Until: 18:00,            !- Field 13
    664     0.297763457,             !- Field 14
    665     Until: 19:00,            !- Field 15
    666     0.531842305,             !- Field 16
    667     Until: 20:00,            !- Field 17
    668     0.765921152,             !- Field 18
    669     Until: 22:00,            !- Field 19
    670     1,                       !- Field 20
    671     Until: 23:00,            !- Field 21
    672     0.765921152,             !- Field 22
    673     Until: 24:00,            !- Field 23
    674     0.297763457,             !- Field 24
    675     For: Weekends,           !- Field 25
    676     Until: 07:00,            !- Field 26
    677     0.06368461,              !- Field 27
    678     Until: 23:00,            !- Field 28
    679     1,                       !- Field 29
    680     Until: 24:00,            !- Field 30
    681     0.344579227,             !- Field 31
    682     For: Holidays,           !- Field 32
    683     Until: 07:00,            !- Field 33
    684     0.06368461,              !- Field 34
    685     Until: 23:00,            !- Field 35
    686     1,                       !- Field 36
    687     Until: 24:00,            !- Field 37
    688     0.344579227,             !- Field 38
    689     For: WinterDesignDay AllOtherDays,  !- Field 39
    690     Until: 24:00,            !- Field 40
    691     0;                       !- Field 41
    692 
    693 Schedule:Compact,
    694     Activity Schedule 18822, !- Name
    695     Any Number,              !- Schedule Type Limits Name
    696     Through: 12/31,          !- Field 1
    697     For: AllDays,            !- Field 2
    698     Until: 24:00,            !- Field 3
    699     117;                     !- Field 4
    700 
    701 Schedule:Compact,
    702     Clothing Schedule 18822, !- Name
    703     Any Number,              !- Schedule Type Limits Name
    704     Through: 4/1,            !- Field 1
    705     For: AllDays,            !- Field 2
    706     Until: 24:00,            !- Field 3
    707     1,                       !- Field 4
    708     Through: 9/30,           !- Field 5
    709     For: AllDays,            !- Field 6
    710     Until: 24:00,            !- Field 7
    711     .5,                      !- Field 8
    712     Through: 12/31,          !- Field 9
    713     For: AllDays,            !- Field 10
    714     Until: 24:00,            !- Field 11
    715     1;                       !- Field 12
    716 
    717 Schedule:Compact,
    718     Activity Schedule 18856, !- Name
    719     Any Number,              !- Schedule Type Limits Name
    720     Through: 12/31,          !- Field 1
    721     For: AllDays,            !- Field 2
    722     Until: 24:00,            !- Field 3
    723     162;                     !- Field 4
    724 
    725 Schedule:Compact,
    726     Clothing Schedule 18856, !- Name
    727     Any Number,              !- Schedule Type Limits Name
    728     Through: 4/1,            !- Field 1
    729     For: AllDays,            !- Field 2
    730     Until: 24:00,            !- Field 3
    731     1,                       !- Field 4
    732     Through: 9/30,           !- Field 5
    733     For: AllDays,            !- Field 6
    734     Until: 24:00,            !- Field 7
    735     .5,                      !- Field 8
    736     Through: 12/31,          !- Field 9
    737     For: AllDays,            !- Field 10
    738     Until: 24:00,            !- Field 11
    739     1;                       !- Field 12
    740 
    741 Schedule:Compact,
    742     DHW Supply Temperature 1Floor:Zone7,  !- Name
    743     Temperature,             !- Schedule Type Limits Name
    744     Through: 12/31,          !- Field 1
    745     For: AllDays,            !- Field 2
    746     Until: 24:00,            !- Field 3
    747     65;                      !- Field 4
    748 
    749 Schedule:Compact,
    750     DHW Mains Temperature 1Floor:Zone7,  !- Name
    751     Temperature,             !- Schedule Type Limits Name
    752     Through: 12/31,          !- Field 1
    753     For: AllDays,            !- Field 2
    754     Until: 24:00,            !- Field 3
    755     10;                      !- Field 4
    756 
    757 Schedule:Compact,
    758     Activity Schedule 18877, !- Name
    759     Any Number,              !- Schedule Type Limits Name
    760     Through: 12/31,          !- Field 1
    761     For: AllDays,            !- Field 2
    762     Until: 24:00,            !- Field 3
    763     117;                     !- Field 4
    764 
    765 Schedule:Compact,
    766     Clothing Schedule 18877, !- Name
    767     Any Number,              !- Schedule Type Limits Name
    768     Through: 4/1,            !- Field 1
    769     For: AllDays,            !- Field 2
    770     Until: 24:00,            !- Field 3
    771     1,                       !- Field 4
    772     Through: 9/30,           !- Field 5
    773     For: AllDays,            !- Field 6
    774     Until: 24:00,            !- Field 7
    775     .5,                      !- Field 8
    776     Through: 12/31,          !- Field 9
    777     For: AllDays,            !- Field 10
    778     Until: 24:00,            !- Field 11
    779     1;                       !- Field 12
    780 
    781 Schedule:Compact,
    782     Activity Schedule 18884, !- Name
    783     Any Number,              !- Schedule Type Limits Name
    784     Through: 12/31,          !- Field 1
    785     For: AllDays,            !- Field 2
    786     Until: 24:00,            !- Field 3
    787     117;                     !- Field 4
    788 
    789 Schedule:Compact,
    790     Clothing Schedule 18884, !- Name
    791     Any Number,              !- Schedule Type Limits Name
    792     Through: 4/1,            !- Field 1
    793     For: AllDays,            !- Field 2
    794     Until: 24:00,            !- Field 3
    795     1,                       !- Field 4
    796     Through: 9/30,           !- Field 5
    797     For: AllDays,            !- Field 6
    798     Until: 24:00,            !- Field 7
    799     .5,                      !- Field 8
    800     Through: 12/31,          !- Field 9
    801     For: AllDays,            !- Field 10
    802     Until: 24:00,            !- Field 11
    803     1;                       !- Field 12
    804 
    805 Schedule:Compact,
    806     Activity Schedule 18893, !- Name
    807     Any Number,              !- Schedule Type Limits Name
    808     Through: 12/31,          !- Field 1
    809     For: AllDays,            !- Field 2
    810     Until: 24:00,            !- Field 3
    811     162;                     !- Field 4
    812 
    813 Schedule:Compact,
    814     Clothing Schedule 18893, !- Name
    815     Any Number,              !- Schedule Type Limits Name
    816     Through: 4/1,            !- Field 1
    817     For: AllDays,            !- Field 2
    818     Until: 24:00,            !- Field 3
    819     1,                       !- Field 4
    820     Through: 9/30,           !- Field 5
    821     For: AllDays,            !- Field 6
    822     Until: 24:00,            !- Field 7
    823     .5,                      !- Field 8
    824     Through: 12/31,          !- Field 9
    825     For: AllDays,            !- Field 10
    826     Until: 24:00,            !- Field 11
    827     1;                       !- Field 12
    828 
    829 Schedule:Compact,
    830     DHW Supply Temperature 1Floor:Zone10,  !- Name
    831     Temperature,             !- Schedule Type Limits Name
    832     Through: 12/31,          !- Field 1
    833     For: AllDays,            !- Field 2
    834     Until: 24:00,            !- Field 3
    835     65;                      !- Field 4
    836 
    837 Schedule:Compact,
    838     DHW Mains Temperature 1Floor:Zone10,  !- Name
    839     Temperature,             !- Schedule Type Limits Name
    840     Through: 12/31,          !- Field 1
    841     For: AllDays,            !- Field 2
    842     Until: 24:00,            !- Field 3
    843     10;                      !- Field 4
    844 
    845 Schedule:Compact,
    846     Activity Schedule 18902, !- Name
    847     Any Number,              !- Schedule Type Limits Name
    848     Through: 12/31,          !- Field 1
    849     For: AllDays,            !- Field 2
    850     Until: 24:00,            !- Field 3
    851     117;                     !- Field 4
    852 
    853 Schedule:Compact,
    854     Clothing Schedule 18902, !- Name
    855     Any Number,              !- Schedule Type Limits Name
    856     Through: 4/1,            !- Field 1
    857     For: AllDays,            !- Field 2
    858     Until: 24:00,            !- Field 3
    859     1,                       !- Field 4
    860     Through: 9/30,           !- Field 5
    861     For: AllDays,            !- Field 6
    862     Until: 24:00,            !- Field 7
    863     .5,                      !- Field 8
    864     Through: 12/31,          !- Field 9
    865     For: AllDays,            !- Field 10
    866     Until: 24:00,            !- Field 11
    867     1;                       !- Field 12
    868 
    869 ! Modified schedule: 84type_Insulation_Heat
    870 Schedule:Compact,
    871     1Floor:Zone7 Heating SP Sch,  !- Name
    872     Temperature,             !- Schedule Type Limits Name
    873     Through: 31 Dec,         !- Field 1
    874     For: Weekdays SummerDesignDay WinterDesignDay,  !- Field 2
    875     Until: 10:00,            !- Field 3
    876     21,                    !- Field 4
    877     Until: 17:00,            !- Field 5
    878     12,                      !- Field 6
    879     Until: 24:00,            !- Field 7
    880     21,                    !- Field 8
    881     For: Weekends,           !- Field 9
    882     Until: 05:00,            !- Field 10
    883     12,                      !- Field 11
    884     Until: 24:00,            !- Field 12
    885     21,                    !- Field 13
    886     For: Holidays,           !- Field 14
    887     Until: 05:00,            !- Field 15
    888     12,                      !- Field 16
    889     Until: 24:00,            !- Field 17
    890     21,                    !- Field 18
    891     For: AllOtherDays,       !- Field 19
    892     Until: 24:00,            !- Field 20
    893     -50;                     !- Field 21
    894 
    895 ! Modified schedule: 84type_Insulation_Heat
    896 Schedule:Compact,
    897     1Floor:Zone7 Heating Availability Sch,  !- Name
    898     Temperature,             !- Schedule Type Limits Name
    899     Through: 31 Dec,         !- Field 1
    900     For: Weekdays SummerDesignDay WinterDesignDay,  !- Field 2
    901     Until: 10:00,            !- Field 3
    902     1,                       !- Field 4
    903     Until: 17:00,            !- Field 5
    904     1,                       !- Field 6
    905     Until: 24:00,            !- Field 7
    906     1,                       !- Field 8
    907     For: Weekends,           !- Field 9
    908     Until: 05:00,            !- Field 10
    909     1,                       !- Field 11
    910     Until: 24:00,            !- Field 12
    911     1,                       !- Field 13
    912     For: Holidays,           !- Field 14
    913     Until: 05:00,            !- Field 15
    914     1,                       !- Field 16
    915     Until: 24:00,            !- Field 17
    916     1,                       !- Field 18
    917     For: AllOtherDays,       !- Field 19
    918     Until: 24:00,            !- Field 20
    919     0;                       !- Field 21
    920 
    921 ! Modified schedule: 84type_Insulation_Cool
    922 Schedule:Compact,
    923     1Floor:Zone7 Cooling SP Sch,  !- Name
    924     Temperature,             !- Schedule Type Limits Name
    925     Through: 31 Dec,         !- Field 1
    926     For: Weekdays SummerDesignDay,  !- Field 2
    927     Until: 10:00,            !- Field 3
    928     26,                    !- Field 4
    929     Until: 17:00,            !- Field 5
    930     100,                     !- Field 6
    931     Until: 24:00,            !- Field 7
    932     26,                    !- Field 8
    933     For: Weekends,           !- Field 9
    934     Until: 05:00,            !- Field 10
    935     100,                     !- Field 11
    936     Until: 24:00,            !- Field 12
    937     26,                    !- Field 13
    938     For: Holidays,           !- Field 14
    939     Until: 05:00,            !- Field 15
    940     100,                     !- Field 16
    941     Until: 24:00,            !- Field 17
    942     26,                    !- Field 18
    943     For: WinterDesignDay AllOtherDays,  !- Field 19
    944     Until: 24:00,            !- Field 20
    945     100;                     !- Field 21
    946 
    947 ! Modified schedule: 84type_Insulation_Cool
    948 Schedule:Compact,
    949     1Floor:Zone7 Cooling Availability Sch,  !- Name
    950     Temperature,             !- Schedule Type Limits Name
    951     Through: 31 Dec,         !- Field 1
    952     For: Weekdays SummerDesignDay,  !- Field 2
    953     Until: 10:00,            !- Field 3
    954     1,                       !- Field 4
    955     Until: 17:00,            !- Field 5
    956     0,                       !- Field 6
    957     Until: 24:00,            !- Field 7
    958     1,                       !- Field 8
    959     For: Weekends,           !- Field 9
    960     Until: 05:00,            !- Field 10
    961     0,                       !- Field 11
    962     Until: 24:00,            !- Field 12
    963     1,                       !- Field 13
    964     For: Holidays,           !- Field 14
    965     Until: 05:00,            !- Field 15
    966     0,                       !- Field 16
    967     Until: 24:00,            !- Field 17
    968     1,                       !- Field 18
    969     For: WinterDesignDay AllOtherDays,  !- Field 19
    970     Until: 24:00,            !- Field 20
    971     0;                       !- Field 21
    972 
    973 ! Modified schedule: 84type_Insulation_Heat
    974 Schedule:Compact,
    975     1Floor:Zone10 Heating SP Sch,  !- Name
    976     Temperature,             !- Schedule Type Limits Name
    977     Through: 31 Dec,         !- Field 1
    978     For: Weekdays SummerDesignDay WinterDesignDay,  !- Field 2
    979     Until: 10:00,            !- Field 3
    980     18,                      !- Field 4
    981     Until: 17:00,            !- Field 5
    982     12,                      !- Field 6
    983     Until: 24:00,            !- Field 7
    984     18,                      !- Field 8
    985     For: Weekends,           !- Field 9
    986     Until: 05:00,            !- Field 10
    987     12,                      !- Field 11
    988     Until: 24:00,            !- Field 12
    989     18,                      !- Field 13
    990     For: Holidays,           !- Field 14
    991     Until: 05:00,            !- Field 15
    992     12,                      !- Field 16
    993     Until: 24:00,            !- Field 17
    994     18,                      !- Field 18
    995     For: AllOtherDays,       !- Field 19
    996     Until: 24:00,            !- Field 20
    997     -50;                     !- Field 21
    998 
    999 ! Modified schedule: 84type_Insulation_Heat
   1000 Schedule:Compact,
   1001     1Floor:Zone10 Heating Availability Sch,  !- Name
   1002     Temperature,             !- Schedule Type Limits Name
   1003     Through: 31 Dec,         !- Field 1
   1004     For: Weekdays SummerDesignDay WinterDesignDay,  !- Field 2
   1005     Until: 10:00,            !- Field 3
   1006     1,                       !- Field 4
   1007     Until: 17:00,            !- Field 5
   1008     1,                       !- Field 6
   1009     Until: 24:00,            !- Field 7
   1010     1,                       !- Field 8
   1011     For: Weekends,           !- Field 9
   1012     Until: 05:00,            !- Field 10
   1013     1,                       !- Field 11
   1014     Until: 24:00,            !- Field 12
   1015     1,                       !- Field 13
   1016     For: Holidays,           !- Field 14
   1017     Until: 05:00,            !- Field 15
   1018     1,                       !- Field 16
   1019     Until: 24:00,            !- Field 17
   1020     1,                       !- Field 18
   1021     For: AllOtherDays,       !- Field 19
   1022     Until: 24:00,            !- Field 20
   1023     0;                       !- Field 21
   1024 
   1025 ! Modified schedule: 84type_Insulation_Cool
   1026 Schedule:Compact,
   1027     1Floor:Zone10 Cooling SP Sch,  !- Name
   1028     Temperature,             !- Schedule Type Limits Name
   1029     Through: 31 Dec,         !- Field 1
   1030     For: Weekdays SummerDesignDay,  !- Field 2
   1031     Until: 10:00,            !- Field 3
   1032     26,                      !- Field 4
   1033     Until: 17:00,            !- Field 5
   1034     100,                     !- Field 6
   1035     Until: 24:00,            !- Field 7
   1036     26,                      !- Field 8
   1037     For: Weekends,           !- Field 9
   1038     Until: 05:00,            !- Field 10
   1039     100,                     !- Field 11
   1040     Until: 24:00,            !- Field 12
   1041     26,                      !- Field 13
   1042     For: Holidays,           !- Field 14
   1043     Until: 05:00,            !- Field 15
   1044     100,                     !- Field 16
   1045     Until: 24:00,            !- Field 17
   1046     26,                      !- Field 18
   1047     For: WinterDesignDay AllOtherDays,  !- Field 19
   1048     Until: 24:00,            !- Field 20
   1049     100;                     !- Field 21
   1050 
   1051 ! Modified schedule: 84type_Insulation_Cool
   1052 Schedule:Compact,
   1053     1Floor:Zone10 Cooling Availability Sch,  !- Name
   1054     Temperature,             !- Schedule Type Limits Name
   1055     Through: 31 Dec,         !- Field 1
   1056     For: Weekdays SummerDesignDay,  !- Field 2
   1057     Until: 10:00,            !- Field 3
   1058     1,                       !- Field 4
   1059     Until: 17:00,            !- Field 5
   1060     0,                       !- Field 6
   1061     Until: 24:00,            !- Field 7
   1062     1,                       !- Field 8
   1063     For: Weekends,           !- Field 9
   1064     Until: 05:00,            !- Field 10
   1065     0,                       !- Field 11
   1066     Until: 24:00,            !- Field 12
   1067     1,                       !- Field 13
   1068     For: Holidays,           !- Field 14
   1069     Until: 05:00,            !- Field 15
   1070     0,                       !- Field 16
   1071     Until: 24:00,            !- Field 17
   1072     1,                       !- Field 18
   1073     For: WinterDesignDay AllOtherDays,  !- Field 19
   1074     Until: 24:00,            !- Field 20
   1075     0;                       !- Field 21
   1076 
   1077 
   1078 !-   ===========  ALL OBJECTS IN CLASS: MATERIAL ===========
   1079 
   1080 ! Urea Formaldehyde Foam- thickness 0.0441
   1081 Material,
   1082     1_1_37,                  !- Name
   1083     Rough,                   !- Roughness
   1084     0.0441,                  !- Thickness {m}
   1085     0.04,                    !- Conductivity {W/m-K}
   1086     10,                      !- Density {kg/m3}
   1087     1400,                    !- Specific Heat {J/kg-K}
   1088     0.9,                     !- Thermal Absorptance
   1089     0.6,                     !- Solar Absorptance
   1090     0.6;                     !- Visible Absorptance
   1091 
   1092 ! Cast Concrete- thickness 0.1
   1093 Material,
   1094     1_2_9,                   !- Name
   1095     Rough,                   !- Roughness
   1096     0.1,                     !- Thickness {m}
   1097     1.1300,                  !- Conductivity {W/m-K}
   1098     2000.00,                 !- Density {kg/m3}
   1099     1000.00,                 !- Specific Heat {J/kg-K}
   1100     0.9,                     !- Thermal Absorptance
   1101     0.6,                     !- Solar Absorptance
   1102     0.6;                     !- Visible Absorptance
   1103 
   1104 ! Floor/Roof Screed- thickness 0.07
   1105 Material,
   1106     1_3_29,                  !- Name
   1107     Rough,                   !- Roughness
   1108     0.07,                    !- Thickness {m}
   1109     0.4100,                  !- Conductivity {W/m-K}
   1110     1200.00,                 !- Density {kg/m3}
   1111     840.00,                  !- Specific Heat {J/kg-K}
   1112     0.9,                     !- Thermal Absorptance
   1113     0.73,                    !- Solar Absorptance
   1114     0.73;                    !- Visible Absorptance
   1115 
   1116 ! Timber Flooring- thickness 0.03
   1117 Material,
   1118     1_4_34,                  !- Name
   1119     Rough,                   !- Roughness
   1120     0.03,                    !- Thickness {m}
   1121     0.1400,                  !- Conductivity {W/m-K}
   1122     650.00,                  !- Density {kg/m3}
   1123     1200.00,                 !- Specific Heat {J/kg-K}
   1124     0.9,                     !- Thermal Absorptance
   1125     0.78,                    !- Solar Absorptance
   1126     0.78;                    !- Visible Absorptance
   1127 
   1128 ! Asphalt- thickness 0.01
   1129 Material,
   1130     3_1_4,                   !- Name
   1131     Rough,                   !- Roughness
   1132     0.01,                    !- Thickness {m}
   1133     0.7000,                  !- Conductivity {W/m-K}
   1134     2100,                    !- Density {kg/m3}
   1135     1000.00,                 !- Specific Heat {J/kg-K}
   1136     0.9,                     !- Thermal Absorptance
   1137     0.85,                    !- Solar Absorptance
   1138     0.9;                     !- Visible Absorptance
   1139 
   1140 ! MW Glass Wool (rolls)- thickness 0.0821
   1141 Material,
   1142     3_2_20,                  !- Name
   1143     Rough,                   !- Roughness
   1144     0.0821,                  !- Thickness {m}
   1145     0.040,                   !- Conductivity {W/m-K}
   1146     12,                      !- Density {kg/m3}
   1147     840,                     !- Specific Heat {J/kg-K}
   1148     0.9,                     !- Thermal Absorptance
   1149     0.6,                     !- Solar Absorptance
   1150     0.6;                     !- Visible Absorptance
   1151 
   1152 ! Plasterboard- thickness 0.013
   1153 Material,
   1154     3_4_113,                 !- Name
   1155     Rough,                   !- Roughness
   1156     0.013,                   !- Thickness {m}
   1157     0.25,                    !- Conductivity {W/m-K}
   1158     2800,                    !- Density {kg/m3}
   1159     896,                     !- Specific Heat {J/kg-K}
   1160     0.9,                     !- Thermal Absorptance
   1161     0.5,                     !- Solar Absorptance
   1162     0.5;                     !- Visible Absorptance
   1163 
   1164 ! Concrete Block (Medium)- thickness 0.2
   1165 Material,
   1166     5_1_11,                  !- Name
   1167     Rough,                   !- Roughness
   1168     0.2,                     !- Thickness {m}
   1169     0.51,                    !- Conductivity {W/m-K}
   1170     1400,                    !- Density {kg/m3}
   1171     1000,                    !- Specific Heat {J/kg-K}
   1172     0.9,                     !- Thermal Absorptance
   1173     0.6,                     !- Solar Absorptance
   1174     0.6;                     !- Visible Absorptance
   1175 
   1176 ! XPS Extruded Polystyrene  - CO2 Blowing- thickness 0.0381
   1177 Material,
   1178     5_2_103,                 !- Name
   1179     Rough,                   !- Roughness
   1180     0.0381,                  !- Thickness {m}
   1181     0.034,                   !- Conductivity {W/m-K}
   1182     35,                      !- Density {kg/m3}
   1183     1400,                    !- Specific Heat {J/kg-K}
   1184     0.9,                     !- Thermal Absorptance
   1185     0.6,                     !- Solar Absorptance
   1186     0.6;                     !- Visible Absorptance
   1187 
   1188 ! Gypsum Plasterboard- thickness 0.01
   1189 Material,
   1190     5_3_27,                  !- Name
   1191     Rough,                   !- Roughness
   1192     0.01,                    !- Thickness {m}
   1193     0.25,                    !- Conductivity {W/m-K}
   1194     900,                     !- Density {kg/m3}
   1195     1000,                    !- Specific Heat {J/kg-K}
   1196     0.9,                     !- Thermal Absorptance
   1197     0.5,                     !- Solar Absorptance
   1198     0.5;                     !- Visible Absorptance
   1199 
   1200 ! Painted Oak- thickness 0.035
   1201 Material,
   1202     9_1_108,                 !- Name
   1203     Rough,                   !- Roughness
   1204     0.035,                   !- Thickness {m}
   1205     0.19,                    !- Conductivity {W/m-K}
   1206     700,                     !- Density {kg/m3}
   1207     2390,                    !- Specific Heat {J/kg-K}
   1208     0.9,                     !- Thermal Absorptance
   1209     0.5,                     !- Solar Absorptance
   1210     0.5;                     !- Visible Absorptance
   1211 
   1212 ! Concrete, Medium density- thickness 0.15
   1213 Material,
   1214     11_1_180,                !- Name
   1215     Rough,                   !- Roughness
   1216     0.15,                    !- Thickness {m}
   1217     1.35,                    !- Conductivity {W/m-K}
   1218     1800,                    !- Density {kg/m3}
   1219     1000,                    !- Specific Heat {J/kg-K}
   1220     0.9,                     !- Thermal Absorptance
   1221     0.6,                     !- Solar Absorptance
   1222     0.6;                     !- Visible Absorptance
   1223 
   1224 
   1225 !-   ===========  ALL OBJECTS IN CLASS: MATERIAL:NOMASS ===========
   1226 
   1227 ! Special material to represent an R-value for the next construction
   1228 Material:NoMass,
   1229     3_RVAL_3,                !- Name
   1230     Rough,                   !- Roughness
   1231     0.18,                    !- Thermal Resistance {m2-K/W}
   1232     0.9,                     !- Thermal Absorptance
   1233     0.7,                     !- Solar Absorptance
   1234     0.7;                     !- Visible Absorptance
   1235 
   1236 ! Special material to represent an R-value for the next construction
   1237 Material:NoMass,
   1238     4_RVAL_2,                !- Name
   1239     Rough,                   !- Roughness
   1240     0.18,                    !- Thermal Resistance {m2-K/W}
   1241     0.9,                     !- Thermal Absorptance
   1242     0.7,                     !- Solar Absorptance
   1243     0.7;                     !- Visible Absorptance
   1244 
   1245 
   1246 !-   ===========  ALL OBJECTS IN CLASS: MATERIAL:INFRAREDTRANSPARENT ===========
   1247 
   1248 Material:InfraredTransparent,
   1249     IRTMaterial;             !- Name
   1250 
   1251 
   1252 !-   ===========  ALL OBJECTS IN CLASS: WINDOWMATERIAL:SIMPLEGLAZINGSYSTEM ===========
   1253 
   1254 ! ABC_Project external glazing
   1255 WindowMaterial:SimpleGlazingSystem,
   1256     Simple 1001,             !- Name
   1257     4.19,                    !- U-Factor {W/m2-K}
   1258     0.687,                   !- Solar Heat Gain Coefficient
   1259     0.744;                   !- Visible Transmittance
   1260 
   1261 ! ABC_Project internal glazing
   1262 WindowMaterial:SimpleGlazingSystem,
   1263     Simple 1002,             !- Name
   1264     5,                       !- U-Factor {W/m2-K}
   1265     0.675,                   !- Solar Heat Gain Coefficient
   1266     0.738;                   !- Visible Transmittance
   1267 
   1268 
   1269 !-   ===========  ALL OBJECTS IN CLASS: CONSTRUCTION ===========
   1270 
   1271 Construction,
   1272     IRTSurface,              !- Name
   1273     IRTMaterial;             !- Outside Layer
   1274 
   1275 ! 'ABC_Project ground floor'
   1276 Construction,
   1277     1,                       !- Name
   1278     1_1_37,                  !- Outside Layer
   1279     1_2_9,                   !- Layer 2
   1280     1_3_29,                  !- Layer 3
   1281     1_4_34;                  !- Layer 4
   1282 
   1283 ! <Previous reversed>
   1284 Construction,
   1285     2,                       !- Name
   1286     1_4_34,                  !- Outside Layer
   1287     1_3_29,                  !- Layer 2
   1288     1_2_9,                   !- Layer 3
   1289     1_1_37;                  !- Layer 4
   1290 
   1291 ! 'ABC_Project flat roof'
   1292 Construction,
   1293     3,                       !- Name
   1294     3_1_4,                   !- Outside Layer
   1295     3_2_20,                  !- Layer 2
   1296     3_RVAL_3,                !- Layer 3
   1297     3_4_113;                 !- Layer 4
   1298 
   1299 ! <Previous reversed>
   1300 Construction,
   1301     4,                       !- Name
   1302     3_4_113,                 !- Outside Layer
   1303     4_RVAL_2,                !- Layer 2
   1304     3_2_20,                  !- Layer 3
   1305     3_1_4;                   !- Layer 4
   1306 
   1307 ! 'ABC_Project wall'
   1308 Construction,
   1309     5,                       !- Name
   1310     5_1_11,                  !- Outside Layer
   1311     5_2_103,                 !- Layer 2
   1312     5_3_27;                  !- Layer 3
   1313 
   1314 ! <Previous reversed>
   1315 Construction,
   1316     6,                       !- Name
   1317     5_3_27,                  !- Outside Layer
   1318     5_2_103,                 !- Layer 2
   1319     5_1_11;                  !- Layer 3
   1320 
   1321 ! 'ABC_Project wall_noinsulation'
   1322 Construction,
   1323     7,                       !- Name
   1324     5_1_11;                  !- Outside Layer
   1325 
   1326 ! <Previous reversed>
   1327 Construction,
   1328     8,                       !- Name
   1329     5_1_11;                  !- Outside Layer
   1330 
   1331 ! 'Project internal door'
   1332 Construction,
   1333     9,                       !- Name
   1334     9_1_108;                 !- Outside Layer
   1335 
   1336 ! <Previous reversed>
   1337 Construction,
   1338     10,                      !- Name
   1339     9_1_108;                 !- Outside Layer
   1340 
   1341 ! 'ABC_Project partition'
   1342 Construction,
   1343     11,                      !- Name
   1344     11_1_180;                !- Outside Layer
   1345 
   1346 ! <Previous reversed>
   1347 Construction,
   1348     12,                      !- Name
   1349     11_1_180;                !- Outside Layer
   1350 
   1351 Construction,
   1352     1001,                    !- Name
   1353     Simple 1001;             !- Outside Layer
   1354 
   1355 Construction,
   1356     1002,                    !- Name
   1357     Simple 1002;             !- Outside Layer
   1358 
   1359 
   1360 !-   ===========  ALL OBJECTS IN CLASS: GLOBALGEOMETRYRULES ===========
   1361 
   1362 GlobalGeometryRules,
   1363     LowerLeftCorner,         !- Starting Vertex Position
   1364     CounterClockWise,        !- Vertex Entry Direction
   1365     Relative;                !- Coordinate System
   1366 
   1367 
   1368 !-   ===========  ALL OBJECTS IN CLASS: ZONE ===========
   1369 
   1370 ! 1Floor - Zone 32
   1371 Zone,
   1372     1Floor:Zone32,           !- Name
   1373     0,                       !- Direction of Relative North {deg}
   1374     0,                       !- X Origin {m}
   1375     0,                       !- Y Origin {m}
   1376     0,                       !- Z Origin {m}
   1377     1,                       !- Type
   1378     1,                       !- Multiplier
   1379     ,                        !- Ceiling Height {m}
   1380     988.4769,                !- Volume {m3}
   1381     411.8971,                !- Floor Area {m2}
   1382     TrombeWall;              !- Zone Inside Convection Algorithm
   1383 
   1384 ! 1Floor - Zone 7
   1385 Zone,
   1386     1Floor:Zone7,            !- Name
   1387     0,                       !- Direction of Relative North {deg}
   1388     0,                       !- X Origin {m}
   1389     0,                       !- Y Origin {m}
   1390     0,                       !- Z Origin {m}
   1391     1,                       !- Type
   1392     1,                       !- Multiplier
   1393     ,                        !- Ceiling Height {m}
   1394     248.2685,                !- Volume {m3}
   1395     103.4532,                !- Floor Area {m2}
   1396     TARP;                    !- Zone Inside Convection Algorithm
   1397 
   1398 ! 1Floor - Zone 28
   1399 Zone,
   1400     1Floor:Zone28,           !- Name
   1401     0,                       !- Direction of Relative North {deg}
   1402     0,                       !- X Origin {m}
   1403     0,                       !- Y Origin {m}
   1404     0,                       !- Z Origin {m}
   1405     1,                       !- Type
   1406     1,                       !- Multiplier
   1407     ,                        !- Ceiling Height {m}
   1408     4.5796,                  !- Volume {m3}
   1409     1.9083,                  !- Floor Area {m2}
   1410     TrombeWall;              !- Zone Inside Convection Algorithm
   1411 
   1412 ! 1Floor - Zone 30
   1413 Zone,
   1414     1Floor:Zone30,           !- Name
   1415     0,                       !- Direction of Relative North {deg}
   1416     0,                       !- X Origin {m}
   1417     0,                       !- Y Origin {m}
   1418     0,                       !- Z Origin {m}
   1419     1,                       !- Type
   1420     1,                       !- Multiplier
   1421     ,                        !- Ceiling Height {m}
   1422     4.4877,                  !- Volume {m3}
   1423     1.87,                    !- Floor Area {m2}
   1424     CeilingDiffuser;         !- Zone Inside Convection Algorithm
   1425 
   1426 ! 1Floor - Zone 10
   1427 Zone,
   1428     1Floor:Zone10,           !- Name
   1429     0,                       !- Direction of Relative North {deg}
   1430     0,                       !- X Origin {m}
   1431     0,                       !- Y Origin {m}
   1432     0,                       !- Z Origin {m}
   1433     1,                       !- Type
   1434     1,                       !- Multiplier
   1435     ,                        !- Ceiling Height {m}
   1436     45.5303,                 !- Volume {m3}
   1437     18.9724,                 !- Floor Area {m2}
   1438     TARP;                    !- Zone Inside Convection Algorithm
   1439 
   1440 ! 1Floor - Zone 29
   1441 Zone,
   1442     1Floor:Zone29,           !- Name
   1443     0,                       !- Direction of Relative North {deg}
   1444     0,                       !- X Origin {m}
   1445     0,                       !- Y Origin {m}
   1446     0,                       !- Z Origin {m}
   1447     1,                       !- Type
   1448     1,                       !- Multiplier
   1449     ,                        !- Ceiling Height {m}
   1450     12.3365,                 !- Volume {m3}
   1451     5.1406,                  !- Floor Area {m2}
   1452     CeilingDiffuser;         !- Zone Inside Convection Algorithm
   1453 
   1454 
   1455 !-   ===========  ALL OBJECTS IN CLASS: BUILDINGSURFACE:DETAILED ===========
   1456 
   1457 ! 1Floor, Zone 32, Ground floor - 411.897 m2 (Ground), Surface Area: 11.519m2
   1458 BuildingSurface:Detailed,
   1459     1Floor:Zone32_GroundFloor_0_0_0,  !- Name
   1460     Floor,                   !- Surface Type
   1461     1,                       !- Construction Name
   1462     1Floor:Zone32,           !- Zone Name
   1463     Ground,                  !- Outside Boundary Condition
   1464     ,                        !- Outside Boundary Condition Object
   1465     NoSun,                   !- Sun Exposure
   1466     NoWind,                  !- Wind Exposure
   1467     1,                       !- View Factor to Ground
   1468     4,                       !- Number of Vertices
   1469     45.61820206,             !- Vertex 1 X-coordinate {m}
   1470     17.50713721,             !- Vertex 1 Y-coordinate {m}
   1471     0,                       !- Vertex 1 Z-coordinate {m}
   1472     41.50420206,             !- Vertex 2 X-coordinate {m}
   1473     17.50713721,             !- Vertex 2 Y-coordinate {m}
   1474     0,                       !- Vertex 2 Z-coordinate {m}
   1475     41.50420206,             !- Vertex 3 X-coordinate {m}
   1476     20.30713721,             !- Vertex 3 Y-coordinate {m}
   1477     0,                       !- Vertex 3 Z-coordinate {m}
   1478     45.61820206,             !- Vertex 4 X-coordinate {m}
   1479     20.30713721,             !- Vertex 4 Y-coordinate {m}
   1480     0;                       !- Vertex 4 Z-coordinate {m}
   1481 
   1482 ! 1Floor, Zone 32, Ground floor - 411.897 m2 (Ground), Surface Area: 8.996m2
   1483 BuildingSurface:Detailed,
   1484     1Floor:Zone32_GroundFloor_0_0_1,  !- Name
   1485     Floor,                   !- Surface Type
   1486     1,                       !- Construction Name
   1487     1Floor:Zone32,           !- Zone Name
   1488     Ground,                  !- Outside Boundary Condition
   1489     ,                        !- Outside Boundary Condition Object
   1490     NoSun,                   !- Sun Exposure
   1491     NoWind,                  !- Wind Exposure
   1492     1,                       !- View Factor to Ground
   1493     4,                       !- Number of Vertices
   1494     51.05820206,             !- Vertex 1 X-coordinate {m}
   1495     16.90713721,             !- Vertex 1 Y-coordinate {m}
   1496     0,                       !- Vertex 1 Z-coordinate {m}
   1497     36.06420206,             !- Vertex 2 X-coordinate {m}
   1498     16.90713721,             !- Vertex 2 Y-coordinate {m}
   1499     0,                       !- Vertex 2 Z-coordinate {m}
   1500     36.06420206,             !- Vertex 3 X-coordinate {m}
   1501     17.50713721,             !- Vertex 3 Y-coordinate {m}
   1502     0,                       !- Vertex 3 Z-coordinate {m}
   1503     51.05820206,             !- Vertex 4 X-coordinate {m}
   1504     17.50713721,             !- Vertex 4 Y-coordinate {m}
   1505     0;                       !- Vertex 4 Z-coordinate {m}
   1506 
   1507 ! 1Floor, Zone 32, Ground floor - 411.897 m2 (Ground), Surface Area: 11.519m2
   1508 BuildingSurface:Detailed,
   1509     1Floor:Zone32_GroundFloor_0_0_2,  !- Name
   1510     Floor,                   !- Surface Type
   1511     1,                       !- Construction Name
   1512     1Floor:Zone32,           !- Zone Name
   1513     Ground,                  !- Outside Boundary Condition
   1514     ,                        !- Outside Boundary Condition Object
   1515     NoSun,                   !- Sun Exposure
   1516     NoWind,                  !- Wind Exposure
   1517     1,                       !- View Factor to Ground
   1518     4,                       !- Number of Vertices
   1519     20.41820206,             !- Vertex 1 X-coordinate {m}
   1520     17.50713721,             !- Vertex 1 Y-coordinate {m}
   1521     0,                       !- Vertex 1 Z-coordinate {m}
   1522     16.30420206,             !- Vertex 2 X-coordinate {m}
   1523     17.50713721,             !- Vertex 2 Y-coordinate {m}
   1524     0,                       !- Vertex 2 Z-coordinate {m}
   1525     16.30420206,             !- Vertex 3 X-coordinate {m}
   1526     20.30713721,             !- Vertex 3 Y-coordinate {m}
   1527     0,                       !- Vertex 3 Z-coordinate {m}
   1528     20.41820206,             !- Vertex 4 X-coordinate {m}
   1529     20.30713721,             !- Vertex 4 Y-coordinate {m}
   1530     0;                       !- Vertex 4 Z-coordinate {m}
   1531 
   1532 ! 1Floor, Zone 32, Ground floor - 411.897 m2 (Ground), Surface Area: 6.892m2
   1533 BuildingSurface:Detailed,
   1534     1Floor:Zone32_GroundFloor_0_0_3,  !- Name
   1535     Floor,                   !- Surface Type
   1536     1,                       !- Construction Name
   1537     1Floor:Zone32,           !- Zone Name
   1538     Ground,                  !- Outside Boundary Condition
   1539     ,                        !- Outside Boundary Condition Object
   1540     NoSun,                   !- Sun Exposure
   1541     NoWind,                  !- Wind Exposure
   1542     1,                       !- View Factor to Ground
   1543     4,                       !- Number of Vertices
   1544     25.85820206,             !- Vertex 1 X-coordinate {m}
   1545     16.90713721,             !- Vertex 1 Y-coordinate {m}
   1546     0,                       !- Vertex 1 Z-coordinate {m}
   1547     14.37120206,             !- Vertex 2 X-coordinate {m}
   1548     16.90713721,             !- Vertex 2 Y-coordinate {m}
   1549     0,                       !- Vertex 2 Z-coordinate {m}
   1550     14.37120206,             !- Vertex 3 X-coordinate {m}
   1551     17.50713721,             !- Vertex 3 Y-coordinate {m}
   1552     0,                       !- Vertex 3 Z-coordinate {m}
   1553     25.85820206,             !- Vertex 4 X-coordinate {m}
   1554     17.50713721,             !- Vertex 4 Y-coordinate {m}
   1555     0;                       !- Vertex 4 Z-coordinate {m}
   1556 
   1557 ! 1Floor, Zone 32, Ground floor - 411.897 m2 (Ground), Surface Area: 4.257m2
   1558 BuildingSurface:Detailed,
   1559     1Floor:Zone32_GroundFloor_0_0_4,  !- Name
   1560     Floor,                   !- Surface Type
   1561     1,                       !- Construction Name
   1562     1Floor:Zone32,           !- Zone Name
   1563     Ground,                  !- Outside Boundary Condition
   1564     ,                        !- Outside Boundary Condition Object
   1565     NoSun,                   !- Sun Exposure
   1566     NoWind,                  !- Wind Exposure
   1567     1,                       !- View Factor to Ground
   1568     4,                       !- Number of Vertices
   1569     55.86820206,             !- Vertex 1 X-coordinate {m}
   1570     6.67313721,              !- Vertex 1 Y-coordinate {m}
   1571     0,                       !- Vertex 1 Z-coordinate {m}
   1572     47.35420206,             !- Vertex 2 X-coordinate {m}
   1573     6.67313721,              !- Vertex 2 Y-coordinate {m}
   1574     0,                       !- Vertex 2 Z-coordinate {m}
   1575     47.35420206,             !- Vertex 3 X-coordinate {m}
   1576     7.17313721,              !- Vertex 3 Y-coordinate {m}
   1577     0,                       !- Vertex 3 Z-coordinate {m}
   1578     55.86820206,             !- Vertex 4 X-coordinate {m}
   1579     7.17313721,              !- Vertex 4 Y-coordinate {m}
   1580     0;                       !- Vertex 4 Z-coordinate {m}
   1581 
   1582 ! 1Floor, Zone 32, Ground floor - 411.897 m2 (Ground), Surface Area: 156.717m2
   1583 BuildingSurface:Detailed,
   1584     1Floor:Zone32_GroundFloor_0_0_5,  !- Name
   1585     Floor,                   !- Surface Type
   1586     1,                       !- Construction Name
   1587     1Floor:Zone32,           !- Zone Name
   1588     Ground,                  !- Outside Boundary Condition
   1589     ,                        !- Outside Boundary Condition Object
   1590     NoSun,                   !- Sun Exposure
   1591     NoWind,                  !- Wind Exposure
   1592     1,                       !- View Factor to Ground
   1593     4,                       !- Number of Vertices
   1594     55.86820206,             !- Vertex 1 X-coordinate {m}
   1595     7.17313721,              !- Vertex 1 Y-coordinate {m}
   1596     0,                       !- Vertex 1 Z-coordinate {m}
   1597     39.76820206,             !- Vertex 2 X-coordinate {m}
   1598     7.17313722,              !- Vertex 2 Y-coordinate {m}
   1599     0,                       !- Vertex 2 Z-coordinate {m}
   1600     39.76820206,             !- Vertex 3 X-coordinate {m}
   1601     16.90713721,             !- Vertex 3 Y-coordinate {m}
   1602     0,                       !- Vertex 3 Z-coordinate {m}
   1603     55.86820206,             !- Vertex 4 X-coordinate {m}
   1604     16.90713721,             !- Vertex 4 Y-coordinate {m}
   1605     0;                       !- Vertex 4 Z-coordinate {m}
   1606 
   1607 ! 1Floor, Zone 32, Ground floor - 411.897 m2 (Ground), Surface Area: 8.807m2
   1608 BuildingSurface:Detailed,
   1609     1Floor:Zone32_GroundFloor_0_0_6,  !- Name
   1610     Floor,                   !- Surface Type
   1611     1,                       !- Construction Name
   1612     1Floor:Zone32,           !- Zone Name
   1613     Ground,                  !- Outside Boundary Condition
   1614     ,                        !- Outside Boundary Condition Object
   1615     NoSun,                   !- Sun Exposure
   1616     NoWind,                  !- Wind Exposure
   1617     1,                       !- View Factor to Ground
   1618     4,                       !- Number of Vertices
[...]
   5533     ,                        !- Flow per Exterior Surface Area {m3/s-m2}
   5534     ,                        !- Air Changes per Hour {1/hr}
   5535     1,                       !- Constant Term Coefficient
   5536     0,                       !- Temperature Term Coefficient
   5537     0,                       !- Velocity Term Coefficient
   5538     0;                       !- Velocity Squared Term Coefficient
   5539 
   5540 ZoneInfiltration:DesignFlowRate,
   5541     1Floor:Zone10 Infiltration,  !- Name
   5542     1Floor:Zone10,           !- Zone or ZoneList Name
   5543     On,                      !- Schedule Name
   5544     Flow/zone,               !- Design Flow Rate Calculation Method
   5545     0.008853,                !- Design Flow Rate {m3/s}
   5546     ,                        !- Flow per Zone Floor Area {m3/s-m2}
   5547     ,                        !- Flow per Exterior Surface Area {m3/s-m2}
   5548     ,                        !- Air Changes per Hour {1/hr}
   5549     1,                       !- Constant Term Coefficient
   5550     0,                       !- Temperature Term Coefficient
   5551     0,                       !- Velocity Term Coefficient
   5552     0;                       !- Velocity Squared Term Coefficient
   5553 
   5554 ZoneInfiltration:DesignFlowRate,
   5555     1Floor:Zone29 Infiltration,  !- Name
   5556     1Floor:Zone29,           !- Zone or ZoneList Name
   5557     On,                      !- Schedule Name
   5558     Flow/zone,               !- Design Flow Rate Calculation Method
   5559     0.002399,                !- Design Flow Rate {m3/s}
   5560     ,                        !- Flow per Zone Floor Area {m3/s-m2}
   5561     ,                        !- Flow per Exterior Surface Area {m3/s-m2}
   5562     ,                        !- Air Changes per Hour {1/hr}
   5563     1,                       !- Constant Term Coefficient
   5564     0,                       !- Temperature Term Coefficient
   5565     0,                       !- Velocity Term Coefficient
   5566     0;                       !- Velocity Squared Term Coefficient
   5567 
   5568 
   5569 !-   ===========  ALL OBJECTS IN CLASS: ZONEVENTILATION:DESIGNFLOWRATE ===========
   5570 
   5571 ZoneVentilation:DesignFlowRate,
   5572     1Floor:Zone7 Mech Vent,  !- Name
   5573     1Floor:Zone7,            !- Zone or ZoneList Name
   5574     3354,                    !- Schedule Name
   5575     Flow/zone,               !- Design Flow Rate Calculation Method
   5576     0.02,                    !- Design Flow Rate {m3/s}
   5577     ,                        !- Flow Rate per Zone Floor Area {m3/s-m2}
   5578     ,                        !- Flow Rate per Person {m3/s-person}
   5579     ,                        !- Air Changes per Hour {1/hr}
   5580     Intake,                  !- Ventilation Type
   5581     150,                     !- Fan Pressure Rise {Pa}
   5582     0.7,                     !- Fan Total Efficiency
   5583     1,                       !- Constant Term Coefficient
   5584     0,                       !- Temperature Term Coefficient
   5585     0,                       !- Velocity Term Coefficient
   5586     0,                       !- Velocity Squared Term Coefficient
   5587     10,                      !- Minimum Indoor Temperature {C}
   5588     ,                        !- Minimum Indoor Temperature Schedule Name
   5589     ,                        !- Maximum Indoor Temperature {C}
   5590     ,                        !- Maximum Indoor Temperature Schedule Name
   5591     -50,                     !- Delta Temperature {deltaC}
   5592     ,                        !- Delta Temperature Schedule Name
   5593     ,                        !- Minimum Outdoor Temperature {C}
   5594     ,                        !- Minimum Outdoor Temperature Schedule Name
   5595     ,                        !- Maximum Outdoor Temperature {C}
   5596     ,                        !- Maximum Outdoor Temperature Schedule Name
   5597     40;                      !- Maximum Wind Speed {m/s}
   5598 
   5599 
   5600 !-   ===========  ALL OBJECTS IN CLASS: ZONECONTROL:THERMOSTAT ===========
   5601 
   5602 ZoneControl:Thermostat,
   5603     1Floor:Zone7 Thermostat, !- Name
   5604     1Floor:Zone7,            !- Zone or ZoneList Name
   5605     Zone Control Type Sched, !- Control Type Schedule Name
   5606     ThermostatSetpoint:DualSetpoint,  !- Control 1 Object Type
   5607     Dual Setpoint - Zone 1Floor:Zone7;  !- Control 1 Name
   5608 
   5609 ZoneControl:Thermostat,
   5610     1Floor:Zone10 Thermostat,!- Name
   5611     1Floor:Zone10,           !- Zone or ZoneList Name
   5612     Zone Control Type Sched, !- Control Type Schedule Name
   5613     ThermostatSetpoint:DualSetpoint,  !- Control 1 Object Type
   5614     Dual Setpoint - Zone 1Floor:Zone10;  !- Control 1 Name
   5615 
   5616 
   5617 !-   ===========  ALL OBJECTS IN CLASS: THERMOSTATSETPOINT:DUALSETPOINT ===========
   5618 
   5619 ThermostatSetpoint:DualSetpoint,
   5620     Dual Setpoint - Zone 1Floor:Zone7,  !- Name
   5621     1Floor:Zone7 Heating SP Sch,  !- Heating Setpoint Temperature Schedule Name
   5622     1Floor:Zone7 Cooling SP Sch;  !- Cooling Setpoint Temperature Schedule Name
   5623 
   5624 ThermostatSetpoint:DualSetpoint,
   5625     Dual Setpoint - Zone 1Floor:Zone10,  !- Name
   5626     1Floor:Zone10 Heating SP Sch,  !- Heating Setpoint Temperature Schedule Name
   5627     1Floor:Zone10 Cooling SP Sch;  !- Cooling Setpoint Temperature Schedule Name
   5628 
   5629 
   5630 !-   ===========  ALL OBJECTS IN CLASS: ZONEHVAC:IDEALLOADSAIRSYSTEM ===========
   5631 
   5632 ZoneHVAC:IdealLoadsAirSystem,
   5633     1Floor:Zone7 Ideal Loads Air,  !- Name
   5634     ,                        !- Availability Schedule Name
   5635     Node 1Floor:Zone7 In,    !- Zone Supply Air Node Name
   5636     ,                        !- Zone Exhaust Air Node Name
   5637     35,                      !- Maximum Heating Supply Air Temperature {C}
   5638     12,                      !- Minimum Cooling Supply Air Temperature {C}
   5639     0.01,                    !- Maximum Heating Supply Air Humidity Ratio {kgWater/kgDryAir}
   5640     0.008,                   !- Minimum Cooling Supply Air Humidity Ratio {kgWater/kgDryAir}
   5641     LimitCapacity,           !- Heating Limit
   5642     ,                        !- Maximum Heating Air Flow Rate {m3/s}
   5643     8197.0356444505,         !- Maximum Sensible Heating Capacity {W}
   5644     LimitCapacity,           !- Cooling Limit
   5645     ,                        !- Maximum Cooling Air Flow Rate {m3/s}
   5646     3653.00581167294,        !- Maximum Total Cooling Capacity {W}
   5647     1Floor:Zone7 Heating Availability Sch,  !- Heating Availability Schedule Name
   5648     1Floor:Zone7 Cooling Availability Sch,  !- Cooling Availability Schedule Name
   5649     None,                    !- Dehumidification Control Type
   5650     ,                        !- Cooling Sensible Heat Ratio {dimensionless}
   5651     None,                    !- Humidification Control Type
   5652     ,                        !- Design Specification Outdoor Air Object Name
   5653     ,                        !- Outdoor Air Inlet Node Name
   5654     ,                        !- Demand Controlled Ventilation Type
   5655     ,                        !- Outdoor Air Economizer Type
   5656     ,                        !- Heat Recovery Type
   5657     ,                        !- Sensible Heat Recovery Effectiveness {dimensionless}
   5658     ;                        !- Latent Heat Recovery Effectiveness {dimensionless}
   5659 
   5660 ZoneHVAC:IdealLoadsAirSystem,
   5661     1Floor:Zone10 Ideal Loads Air,  !- Name
   5662     ,                        !- Availability Schedule Name
   5663     Node 1Floor:Zone10 In,   !- Zone Supply Air Node Name
   5664     ,                        !- Zone Exhaust Air Node Name
   5665     35,                      !- Maximum Heating Supply Air Temperature {C}
   5666     12,                      !- Minimum Cooling Supply Air Temperature {C}
   5667     0.01,                    !- Maximum Heating Supply Air Humidity Ratio {kgWater/kgDryAir}
   5668     0.008,                   !- Minimum Cooling Supply Air Humidity Ratio {kgWater/kgDryAir}
   5669     LimitCapacity,           !- Heating Limit
   5670     ,                        !- Maximum Heating Air Flow Rate {m3/s}
   5671     2121.94876663813,        !- Maximum Sensible Heating Capacity {W}
   5672     LimitCapacity,           !- Cooling Limit
   5673     ,                        !- Maximum Cooling Air Flow Rate {m3/s}
   5674     794.213497016492,        !- Maximum Total Cooling Capacity {W}
   5675     1Floor:Zone10 Heating Availability Sch,  !- Heating Availability Schedule Name
   5676     1Floor:Zone10 Cooling Availability Sch,  !- Cooling Availability Schedule Name
   5677     None,                    !- Dehumidification Control Type
   5678     ,                        !- Cooling Sensible Heat Ratio {dimensionless}
   5679     None,                    !- Humidification Control Type
   5680     ,                        !- Design Specification Outdoor Air Object Name
   5681     ,                        !- Outdoor Air Inlet Node Name
   5682     ,                        !- Demand Controlled Ventilation Type
   5683     ,                        !- Outdoor Air Economizer Type
   5684     ,                        !- Heat Recovery Type
   5685     ,                        !- Sensible Heat Recovery Effectiveness {dimensionless}
   5686     ;                        !- Latent Heat Recovery Effectiveness {dimensionless}
   5687 
   5688 
   5689 !-   ===========  ALL OBJECTS IN CLASS: ZONEHVAC:EQUIPMENTLIST ===========
   5690 
   5691 ZoneHVAC:EquipmentList,
   5692     1Floor:Zone7 Equipment,  !- Name
   5693     ZoneHVAC:IdealLoadsAirSystem,  !- Zone Equipment 1 Object Type
   5694     1Floor:Zone7 Ideal Loads Air,  !- Zone Equipment 1 Name
   5695     1,                       !- Zone Equipment 1 Cooling Sequence
   5696     1;                       !- Zone Equipment 1 Heating or No-Load Sequence
   5697 
   5698 ZoneHVAC:EquipmentList,
   5699     1Floor:Zone10 Equipment, !- Name
   5700     ZoneHVAC:IdealLoadsAirSystem,  !- Zone Equipment 1 Object Type
   5701     1Floor:Zone10 Ideal Loads Air,  !- Zone Equipment 1 Name
   5702     1,                       !- Zone Equipment 1 Cooling Sequence
   5703     1;                       !- Zone Equipment 1 Heating or No-Load Sequence
   5704 
   5705 
   5706 !-   ===========  ALL OBJECTS IN CLASS: ZONEHVAC:EQUIPMENTCONNECTIONS ===========
   5707 
   5708 ZoneHVAC:EquipmentConnections,
   5709     1Floor:Zone7,            !- Zone Name
   5710     1Floor:Zone7 Equipment,  !- Zone Conditioning Equipment List Name
   5711     1Floor:Zone7 Inlets,     !- Zone Air Inlet Node or NodeList Name
   5712     ,                        !- Zone Air Exhaust Node or NodeList Name
   5713     Node 1Floor:Zone7 Zone,  !- Zone Air Node Name
   5714     Node 1Floor:Zone7 Out;   !- Zone Return Air Node Name
   5715 
   5716 ZoneHVAC:EquipmentConnections,
   5717     1Floor:Zone10,           !- Zone Name
   5718     1Floor:Zone10 Equipment, !- Zone Conditioning Equipment List Name
   5719     1Floor:Zone10 Inlets,    !- Zone Air Inlet Node or NodeList Name
   5720     ,                        !- Zone Air Exhaust Node or NodeList Name
   5721     Node 1Floor:Zone10 Zone, !- Zone Air Node Name
   5722     Node 1Floor:Zone10 Out;  !- Zone Return Air Node Name
   5723 
   5724 
   5725 !-   ===========  ALL OBJECTS IN CLASS: NODELIST ===========
   5726 
   5727 NodeList,
   5728     1Floor:Zone7 Inlets,     !- Name
   5729     Node 1Floor:Zone7 In;    !- Node 1 Name
   5730 
   5731 NodeList,
   5732     1Floor:Zone10 Inlets,    !- Name
   5733     Node 1Floor:Zone10 In;   !- Node 1 Name
   5734 
   5735 
   5736 !-   ===========  ALL OBJECTS IN CLASS: WATERUSE:EQUIPMENT ===========
   5737 
   5738 ! DHW 1
   5739 WaterUse:Equipment,
   5740     DHW 1Floor:Zone7,        !- Name
   5741     DHW 1Floor:Zone7,        !- End-Use Subcategory
   5742     0.00000190382625,        !- Peak Flow Rate {m3/s}
   5743     10000,                   !- Flow Rate Fraction Schedule Name
   5744     DHW Supply Temperature 1Floor:Zone7,  !- Target Temperature Schedule Name
   5745     DHW Supply Temperature 1Floor:Zone7,  !- Hot Water Supply Temperature Schedule Name
   5746     DHW Mains Temperature 1Floor:Zone7;  !- Cold Water Supply Temperature Schedule Name
   5747 
   5748 ! DHW 1
   5749 WaterUse:Equipment,
   5750     DHW 1Floor:Zone10,       !- Name
   5751     DHW 1Floor:Zone10,       !- End-Use Subcategory
   5752     3.49144861111111E-07,    !- Peak Flow Rate {m3/s}
   5753     10000,                   !- Flow Rate Fraction Schedule Name
   5754     DHW Supply Temperature 1Floor:Zone10,  !- Target Temperature Schedule Name
   5755     DHW Supply Temperature 1Floor:Zone10,  !- Hot Water Supply Temperature Schedule Name
   5756     DHW Mains Temperature 1Floor:Zone10;  !- Cold Water Supply Temperature Schedule Name
   5757 
   5758 
   5759 !-   ===========  ALL OBJECTS IN CLASS: OUTPUT:TABLE:SUMMARYREPORTS ===========
   5760 
   5761 Output:Table:SummaryReports,
   5762     AnnualBuildingUtilityPerformanceSummary,  !- Report 1 Name
   5763     InputVerificationandResultsSummary,  !- Report 2 Name
   5764     EquipmentSummary,        !- Report 3 Name
   5765     EnvelopeSummary,         !- Report 4 Name
   5766     LightingSummary,         !- Report 5 Name
   5767     HVACSizingSummary,       !- Report 6 Name
   5768     SystemSummary,           !- Report 7 Name
   5769     ComponentSizingSummary,  !- Report 8 Name
   5770     ZoneCoolingSummaryMonthly,  !- Report 9 Name
   5771     ZoneHeatingSummaryMonthly,  !- Report 10 Name
   5772     ZoneElectricSummaryMonthly;  !- Report 11 Name
   5773 
   5774 
   5775 !-   ===========  ALL OBJECTS IN CLASS: OUTPUTCONTROL:TABLE:STYLE ===========
   5776 
   5777 OutputControl:Table:Style,
   5778     XML,                     !- Column Separator
   5779     None;                    !- Unit Conversion
   5780 
   5781 
   5782 !-   ===========  ALL OBJECTS IN CLASS: OUTPUT:VARIABLE ===========
   5783 
   5784 Output:Variable,
   5785     1Floor:Zone7,            !- Key Value
   5786     Zone Air System Sensible Heating Energy,  !- Variable Name
   5787     Monthly;                 !- Reporting Frequency
   5788 
   5789 Output:Variable,
   5790     1Floor:Zone7,            !- Key Value
   5791     Zone Air System Sensible Cooling Energy,  !- Variable Name
   5792     Monthly;                 !- Reporting Frequency
   5793 
   5794 Output:Variable,
   5795     1Floor:Zone7,            !- Key Value
   5796     Zone Electric Equipment Electric Energy,  !- Variable Name
   5797     Monthly;                 !- Reporting Frequency
   5798 
   5799 Output:Variable,
   5800     1Floor:Zone7,            !- Key Value
   5801     Zone Lights Electric Energy,  !- Variable Name
   5802     Monthly;                 !- Reporting Frequency
   5803 
   5804 Output:Variable,
   5805     1Floor:Zone7,            !- Key Value
   5806     Water Use Equipment Heating Energy,  !- Variable Name
   5807     Monthly;                 !- Reporting Frequency
   5808 
   5809 
   5810 !-   ===========  ALL OBJECTS IN CLASS: OUTPUT:DIAGNOSTICS ===========
   5811 
   5812 Output:Diagnostics,
   5813     DisplayAdvancedReportVariables;  !- Key 1
   5814 
   5815                                        
   ** Severe  ** , or ; expected on this line
  Processing Input Data File (in.idf) -- Complete
  Maximum number of Alpha IDF Args=          43
  Maximum number of Numeric IDF Args=          24
  Number of IDF "Lines"=         298
  Number of Defaulted Fields=          24
  Number of Fields with Defaults=        1070
  Number of Autosized Fields=           0
  Number of Autosizable Fields =           8
  Number of Autocalculated Fields=          12
  Number of Autocalculatable Fields =         328
 Getting object=VERSION
 Getting object=HEATBALANCEALGORITHM
 Getting object=TIMESTEP
 Getting object=CONVERGENCELIMITS
 Getting object=OUTPUT:DIAGNOSTICS
 Getting object=SIMULATIONCONTROL
 Getting object=OUTPUT:TABLE:SUMMARYREPORTS
 Getting object=OUTPUT:VARIABLE
 Getting object=RUNPERIOD
 Getting object=SITE:LOCATION
 Getting object=SITE:GROUNDTEMPERATURE:BUILDINGSURFACE
 Getting object=SITE:GROUNDREFLECTANCE
 Getting object=SITE:GROUNDREFLECTANCE:SNOWMODIFIER
 Getting object=SCHEDULE:COMPACT
  Processing Schedule Input -- Start
 Getting object=SCHEDULETYPELIMITS
 Getting object=SCHEDULE:DAY:HOURLY
 Getting object=SCHEDULE:WEEK:DAILY
 Getting object=SCHEDULE:YEAR
  Processing Schedule Input -- Complete
 Getting object=BUILDING
 Getting object=SURFACECONVECTIONALGORITHM:INSIDE
 Getting object=SURFACECONVECTIONALGORITHM:OUTSIDE
 Getting object=MATERIAL
 Getting object=MATERIAL:NOMASS
 Getting object=MATERIAL:INFRAREDTRANSPARENT
 Getting object=WINDOWMATERIAL:SIMPLEGLAZINGSYSTEM
 Getting object=WINDOWPROPERTY:FRAMEANDDIVIDER
 Getting object=CONSTRUCTION
 Getting object=ZONE
 Getting object=GLOBALGEOMETRYRULES
 Getting object=BUILDINGSURFACE:DETAILED
 Getting object=FENESTRATIONSURFACE:DETAILED
 Getting object=PEOPLE
 Getting object=LIGHTS
 Getting object=ELECTRICEQUIPMENT
 Getting object=SHADOWCALCULATION
 Getting object=ZONEINFILTRATION:DESIGNFLOWRATE
 Getting object=ZONEVENTILATION:DESIGNFLOWRATE
 Getting object=ZONECONTROL:THERMOSTAT
 Getting object=THERMOSTATSETPOINT:DUALSETPOINT
 Getting object=ZONECAPACITANCEMULTIPLIER:RESEARCHSPECIAL
 Getting object=NODELIST
 Getting object=ZONEHVAC:EQUIPMENTCONNECTIONS
 Getting object=ZONEHVAC:EQUIPMENTLIST
 Getting object=ZONEHVAC:IDEALLOADSAIRSYSTEM
 Getting object=WATERUSE:EQUIPMENT
 Getting object=OUTPUTCONTROL:TABLE:STYLE
 MonthlyInputCount=           3
 sizeMonthlyInput=          25
 MonthlyFieldSetInputCount=          15
 sizeMonthlyFieldSetInput=          50
 MonthlyTablesCount=          14
 MonthlyColumnsCount=          74
 sizeReportName=         100
 numReportName=          12
 sizeSubTable=         100
 numSubTable=          54
 sizeColumnTag=         400
 numColumnTag=         314
 sizeTableEntry=        2100
 numTableEntry=        2014
 sizeCompSizeTableEntry=         100
 numCompSizeTableEntry=           4
 NumOfRVariable=       13552
 NumOfRVariable(Total)=       13552
 NumOfRVariable(Actual)=          63
 NumOfRVariable(Summed)=          43
 NumOfRVariable(Meter)=          33
 NumOfIVariable=        1077
 NumOfIVariable(Total)=        1077
 NumOfIVariable(Actual)=           0
 NumOfIVariable(Summed)=           0
 MaxRVariable=        1000
 MaxIVariable=          10
 NumEnergyMeters=          70
 NumVarMeterArrays=          33
 maxUniqueKeyCount=        1500
 maxNumberOfFigures=          22
 MAXHCArrayBounds=          10
 MaxVerticesPerSurface=           4
 NumReportList=         500
 InstMeterCacheSize=        1000
 ClippingAlgorithm=SutherlandHodgman
 MonthlyFieldSetInputCount=          15
 NumConsideredOutputVariables=          14
 MaxConsideredOutputVariables=          14
 numActuatorsUsed=           0
 numEMSActuatorsAvailable=           0
 maxEMSActuatorsAvailable=           0
 numInternalVariablesUsed=           0
 numEMSInternalVarsAvailable=           0
 maxEMSInternalVarsAvailable=           0
 NumOfNodeConnections=           8
 MaxNumOfNodeConnections=        1000
